# created with PyMOL 2.5.0
@<TRIPOS>MOLECULE
obj01
16 17 1                 
SMALL
USER_CHARGES
@<TRIPOS>ATOM
1	  C1	11.034	-11.377	-3.052	C.2	1	5TS1	0.000	
2	  N1	8.263	-9.746	0.285	N.2	1	5TS1	0.000	
3	  C2	10.479	-12.629	-2.722	C.2	1	5TS1	0.000	
4	  N2	12.025	-11.306	-4.108	N.2	1	5TS1	0.000	
5	  C3	9.531	-12.743	-1.725	C.2	1	5TS1	0.000	
6	  O3	12.337	-12.344	-4.699	O.2	1	5TS1	0.000	
7	  C4	9.131	-11.568	-1.040	C.2	1	5TS1	0.000	
8	  O4	12.528	-10.211	-4.376	O.2	1	5TS1	0.000	
9	  C5	9.712	-10.317	-1.401	C.2	1	5TS1	0.000	
10	  O5	8.256	-11.504	-0.085	O.2	1	5TS1	0.000	
11	  C6	10.661	-10.205	-2.399	C.2	1	5TS1	0.000	
12	  C9	9.104	-9.327	-0.533	C.2	1	5TS1	0.000	
13	 H01	11.098	-9.242	-2.663	 H	1	5TS1	0.000	
14	 H02	10.802	-13.520	-3.261	 H	1	5TS1	0.000	
15	 H03	9.101	-13.712	-1.471	 H	1	5TS1	0.000	
16	 H04	9.369	-8.271	-0.593	 H	1	5TS1	0.000	
@<TRIPOS>BOND
1 1 3 ar
2 1 4 1
3 2 10 ar
4 3 5 ar
5 3 14 1
6 4 6 ar
7 4 8 ar
8 5 7 ar
9 5 15 1
10 7 9 ar
11 7 10 ar
12 9 12 ar
13 1 11 ar
14 9 11 ar
15 11 13 1
16 2 12 ar
17 12 16 1
@<TRIPOS>SUBSTRUCTURE
1	5TS1	1	GROUP	1 X	5TS
